lig/4jym_with_8y9o_ligand_heta.pdb
 OpenBabel02122509422D

 30 32  0  0  0  0  0  0  0  0999 V2000
   -1.8171   -1.8090    0.0000 N   0  0  0  0  0  0  0  0  0  0  0  0
   -3.1042   -2.9680    0.0000 N   0  0  0  0  0  0  0  0  0  0  0  0
   -3.8474   -2.2989    0.0000 N   0  0  0  0  0  0  0  0  0  0  0  0
   -4.7134   -2.7989    0.0000 N   0  0  0  0  0  0  0  0  0  0  0  0
   -2.1261   -2.7601    0.0000 C   0  0  0  0  0  0  0  0  0  0  0  0
   -4.5055   -3.7770    0.0000 C   0  0  0  0  0  0  0  0  0  0  0  0
   -3.5110   -3.8815    0.0000 C   0  0  0  0  0  0  0  0  0  0  0  0
   -0.8660   -1.5000    0.0000 C   0  0  0  0  0  0  0  0  0  0  0  0
   -0.8660   -0.5000    0.0000 C   0  0  0  0  0  0  0  0  0  0  0  0
   -1.8171   -0.1910    0.0000 C   0  0  0  0  0  0  0  0  0  0  0  0
   -2.4049   -1.0000    0.0000 C   0  0  0  0  0  0  0  0  0  0  0  0
    0.0000   -2.0000    0.0000 C   0  0  0  0  0  0  0  0  0  0  0  0
    0.8660   -1.5000    0.0000 C   0  0  0  0  0  0  0  0  0  0  0  0
    0.8660   -0.5000    0.0000 C   0  0  0  0  0  0  0  0  0  0  0  0
   -0.0000   -0.0000    0.0000 C   0  0  0  0  0  0  0  0  0  0  0  0
    0.0000   -3.0000    0.0000 C   0  0  0  0  0  0  0  0  0  0  0  0
   -1.4570   -3.5032    0.0000 O   0  0  0  0  0  0  0  0  0  0  0  0
   -3.0110   -4.7476    0.0000 H   0  0  0  0  0  0  0  0  0  0  0  0
   -2.5602    0.4781    0.0000 H   0  0  0  0  0  0  0  0  0  0  0  0
   -1.6092    0.7872    0.0000 H   0  0  0  0  0  0  0  0  0  0  0  0
   -3.2709   -1.5000    0.0000 H   0  0  0  0  0  0  0  0  0  0  0  0
   -3.2709   -0.5000    0.0000 H   0  0  0  0  0  0  0  0  0  0  0  0
    1.7321   -2.0000    0.0000 H   0  0  0  0  0  0  0  0  0  0  0  0
    1.7321    0.0000    0.0000 H   0  0  0  0  0  0  0  0  0  0  0  0
   -0.0000    1.0000    0.0000 H   0  0  0  0  0  0  0  0  0  0  0  0
   -1.0000   -3.0000    0.0000 H   0  0  0  0  0  0  0  0  0  0  0  0
   -0.5000   -3.8660    0.0000 H   0  0  0  0  0  0  0  0  0  0  0  0
    0.8660   -3.5000    0.0000 H   0  0  0  0  0  0  0  0  0  0  0  0
   -3.7429   -1.3043    0.0000 H   0  0  0  0  0  0  0  0  0  0  0  0
   -5.6270   -2.3921    0.0000 H   0  0  0  0  0  0  0  0  0  0  0  0
  1  8  1  0  0  0  0
  1 11  1  0  0  0  0
  2  5  1  0  0  0  0
  2  7  1  0  0  0  0
  3  4  1  0  0  0  0
  3  2  1  0  0  0  0
  4  6  1  0  0  0  0
  5  1  1  0  0  0  0
  6  7  2  0  0  0  0
  7 18  1  0  0  0  0
  8  9  2  0  0  0  0
  9 10  1  0  0  0  0
  9 15  1  0  0  0  0
 10 20  1  0  0  0  0
 11 10  1  0  0  0  0
 11 22  1  0  0  0  0
 12 13  2  0  0  0  0
 12  8  1  0  0  0  0
 13 14  1  0  0  0  0
 14 24  1  0  0  0  0
 14 15  2  0  0  0  0
 15 25  1  0  0  0  0
 16 27  1  0  0  0  0
 16 12  1  0  0  0  0
 17  5  2  0  0  0  0
 19 10  1  0  0  0  0
 21 11  1  0  0  0  0
 23 13  1  0  0  0  0
 26 16  1  0  0  0  0
 28 16  1  0  0  0  0
 29  3  1  0  0  0  0
 30  4  1  0  0  0  0
M  END
