@<TRIPOS>MOLECULE
LIG
 29 32 0 0 0
SMALL
GASTEIGER

@<TRIPOS>ATOM
      1 N           2.1100   -0.2580    0.7700 N.ar    1  UNL1       -0.2761
      2 N           2.2690   -0.2670   -0.6210 N.ar    1  UNL1       -0.1730
      3 C           1.0820   -0.1200   -1.1790 C.ar    1  UNL1        0.0968
      4 C           0.1300   -0.0140   -0.1520 C.ar    1  UNL1        0.0099
      5 C           0.7820   -0.1010    1.0400 C.ar    1  UNL1        0.0699
      6 C           0.1630   -0.0360    2.3820 C.ar    1  UNL1        0.0029
      7 C           0.5260    0.9600    3.2940 C.ar    1  UNL1       -0.0344
      8 C          -0.0750    0.9830    4.5350 C.ar    1  UNL1        0.0282
      9 N          -0.9800    0.0820    4.8650 N.ar    1  UNL1       -0.2632
     10 C          -1.3510   -0.8740    4.0360 C.ar    1  UNL1        0.0282
     11 C          -0.8050   -0.9670    2.7730 C.ar    1  UNL1       -0.0344
     12 C          -1.2190    0.1510   -0.8050 C.3     1  UNL1        0.0023
     13 C          -0.9710    0.1320   -2.2930 C.ar    1  UNL1       -0.0337
     14 C           0.3960   -0.0290   -2.4930 C.ar    1  UNL1        0.0059
     15 C           0.8970   -0.0800   -3.7950 C.ar    1  UNL1       -0.0522
     16 C           0.0380    0.0290   -4.8680 C.ar    1  UNL1       -0.0611
     17 C          -1.3190    0.1900   -4.6600 C.ar    1  UNL1       -0.0615
     18 C          -1.8220    0.2420   -3.3730 C.ar    1  UNL1       -0.0576
     19 H           2.8295   -0.3489    1.4358 H       1  UNL1        0.1889
     20 H           1.2335    1.6677    3.0420 H       1  UNL1        0.0639
     21 H           0.1867    1.7146    5.2142 H       1  UNL1        0.0830
     22 H          -2.0594   -1.5618    4.3363 H       1  UNL1        0.0830
     23 H          -1.1061   -1.7124    2.1259 H       1  UNL1        0.0639
     24 H          -1.6606    1.0813   -0.5143 H       1  UNL1        0.0363
     25 H          -1.8921   -0.6273   -0.5118 H       1  UNL1        0.0363
     26 H           1.9096   -0.1992   -3.9543 H       1  UNL1        0.0624
     27 H           0.4096   -0.0098   -5.8300 H       1  UNL1        0.0618
     28 H          -1.9577    0.2715   -5.4665 H       1  UNL1        0.0618
     29 H          -2.8354    0.3633   -3.2203 H       1  UNL1        0.0621
@<TRIPOS>BOND
     1     1     2   ar
     2     1     5   ar
     3     2     3   ar
     4     3     4   ar
     5     3    14    1
     6     4     5   ar
     7     4    12    1
     8     5     6    1
     9     6     7   ar
    10     6    11   ar
    11     7     8   ar
    12     8     9   ar
    13     9    10   ar
    14    10    11   ar
    15    12    13    1
    16    13    14   ar
    17    13    18   ar
    18    14    15   ar
    19    15    16   ar
    20    16    17   ar
    21    17    18   ar
    22     1    19    1
    23     7    20    1
    24     8    21    1
    25    10    22    1
    26    11    23    1
    27    12    24    1
    28    12    25    1
    29    15    26    1
    30    16    27    1
    31    17    28    1
    32    18    29    1
