@<TRIPOS>MOLECULE
8y9o_monomer_complex.pdb
31 33 1 0 0
SMALL
AMBER ff14SB


@<TRIPOS>ATOM
      1 CAB        21.2720  -14.8760   43.1610 C.2       1 IB0    0.3292
      2 CAG        22.1650  -11.7480   44.6520 C.2       1 IB0    0.0245
      3 CAH        22.4710  -13.0150   44.2060 C.2       1 IB0    0.0373
      4 CAI        22.4200  -16.9680   41.9610 C.ar      1 IB0    0.0432
      5 CAJ        23.3010  -16.9600   40.8670 C.ar      1 IB0   -0.0244
      6 CAK        23.8140  -15.5370   40.7500 C.3       1 IB0   -0.0096
      7 CAL        23.7360  -15.0410   42.1640 C.3       1 IB0    0.0251
      8 CAM        21.7940  -18.1680   42.3800 C.ar      1 IB0   -0.0291
      9 CAN        22.0190  -19.3570   41.6600 C.ar      1 IB0   -0.0574
     10 CAO        22.8920  -19.3410   40.5400 C.ar      1 IB0   -0.0616
     11 CAP        23.5330  -18.1540   40.1540 C.ar      1 IB0   -0.0571
     12 CAQ        20.8640  -18.1710   43.5910 C.3       1 IB0   -0.0379
     13 NAA        22.4130  -15.5560   42.5100 N.am      1 IB0   -0.2529
     14 NAC        21.3710  -13.5460   43.6940 N.am      1 IB0   -0.1680
     15 NAE        20.3460  -12.6800   43.8550 N.pl3     1 IB0   -0.2090
     16 NAF        20.8800  -11.5670   44.4240 N.pl3     1 IB0   -0.2611
     17 OAD        20.2310  -15.4110   43.3210 O.2       1 IB0   -0.2514
     18 HAG        22.8461  -11.0405   45.1013 H         1 IB0    0.0819
     19 HAH        23.4384  -13.4917   44.2637 H         1 IB0    0.0828
     20 HAK2       24.8402  -15.5182   40.3831 H         1 IB0    0.0333
     21 HAK3       23.1650  -14.9484   40.1017 H         1 IB0    0.0333
     22 HAL2       24.5184  -15.4682   42.7913 H         1 IB0    0.0478
     23 HAL3       23.7551  -13.9518   42.1997 H         1 IB0    0.0478
     24 HAN        21.5316  -20.2738   41.9571 H         1 IB0    0.0626
     25 HAO        23.0638  -20.2491   39.9813 H         1 IB0    0.0623
     26 HAP        24.2055  -18.1550   39.3089 H         1 IB0    0.0626
     27 HAE        19.3793  -12.8295   43.6035 H         1 IB0    0.1902
     28 HAF        20.3668  -10.7245   44.6404 H         1 IB0    0.1715
     29 HAQ1       20.8348  -19.1705   44.0249 H         1 IB0    0.0280
     30 HAQ2       19.8606  -17.8812   43.2790 H         1 IB0    0.0280
     31 HAQ3       21.2322  -17.4631   44.3336 H         1 IB0    0.0280
@<TRIPOS>BOND
     1    1   13 am
     2    1   14 am
     3    1   17 2
     4    2    3 2
     5    2   16 2
     6    3   14 1
     7    4    5 ar
     8    4    8 ar
     9    4   13 1
    10    5    6 1
    11    5   11 ar
    12    6    7 1
    13    7   13 1
    14    8    9 ar
    15    8   12 1
    16    9   10 ar
    17   10   11 ar
    18   14   15 1
    19   15   16 2
    20   18    2 1
    21   19    3 1
    22   20    6 1
    23   21    6 1
    24   22    7 1
    25   23    7 1
    26   24    9 1
    27   25   10 1
    28   26   11 1
    29   27   15 1
    30   28   16 1
    31   29   12 1
    32   30   12 1
    33   31   12 1
@<TRIPOS>SUBSTRUCTURE
     1 IB0     1 RESIDUE           4 A     IB0     0 ROOT
