lig/protein_ligand_workshop_heta.pdb
 OpenBabel02132510373D

 17 18  0  0  1  0  0  0  0  0999 V2000
   85.9310  -55.4430  -27.1440 C   0  0  0  0  0  0  0  0  0  0  0  0
   85.1780  -54.9730  -25.9290 C   0  0  0  0  0  0  0  0  0  0  0  0
   85.2960  -53.6410  -25.4710 C   0  0  0  0  0  0  0  0  0  0  0  0
   86.1410  -52.6850  -26.1510 C   0  0  0  0  0  0  0  0  0  0  0  0
   86.8820  -53.1400  -27.3440 C   0  0  0  0  0  0  0  0  0  0  0  0
   84.4740  -53.4580  -24.3000 C   0  0  1  0  0  0  0  0  0  0  0  0
   83.8460  -54.7540  -24.0680 C   0  0  0  0  0  0  0  0  0  0  0  0
   84.3060  -52.2060  -23.5000 C   0  0  0  0  0  0  0  0  0  0  0  0
   86.7720  -54.4960  -27.8210 O   0  0  0  0  0  0  0  0  0  0  0  0
   83.0680  -55.0400  -23.1730 O   0  0  0  0  0  0  0  0  0  0  0  0
   84.2800  -55.7540  -25.1030 O   0  0  0  0  0  0  0  0  0  0  0  0
   86.5530  -56.2590  -26.8380 H   0  0  0  0  0  0  0  0  0  0  0  0
   86.2240  -51.7140  -25.8130 H   0  0  0  0  0  0  0  0  0  0  0  0
   87.4910  -52.4750  -27.8460 H   0  0  0  0  0  0  0  0  0  0  0  0
   84.9020  -51.4270  -23.9280 H   0  0  0  0  0  0  0  0  0  0  0  0
   84.6180  -52.3820  -22.4920 H   0  0  0  0  0  0  0  0  0  0  0  0
   83.2760  -51.9130  -23.5090 H   0  0  0  0  0  0  0  0  0  0  0  0
  1 12  1  0  0  0  0
  1  2  1  0  0  0  0
  2  3  2  0  0  0  0
  2 11  1  0  0  0  0
  3  6  1  0  0  0  0
  4 13  1  0  0  0  0
  4  3  1  0  0  0  0
  5  4  2  0  0  0  0
  6  7  1  0  0  0  0
  6  8  1  1  0  0  0
  7 10  2  0  0  0  0
  8 16  1  0  0  0  0
  9  5  1  0  0  0  0
  9  1  1  0  0  0  0
 11  7  1  0  0  0  0
 14  5  1  0  0  0  0
 15  8  1  0  0  0  0
 17  8  1  0  0  0  0
M  END
