lig/protein_ligand_workshop_heta.pdb
 OpenBabel02132510382D

 17 18  0  0  1  0  0  0  0  0999 V2000
    2.4049    1.0000    0.0000 C   0  0  0  0  0  0  0  0  0  0  0  0
    1.5388    0.5000    0.0000 C   0  0  0  0  0  0  0  0  0  0  0  0
    1.5388   -0.5000    0.0000 C   0  0  0  0  0  0  0  0  0  0  0  0
    2.4049   -1.0000    0.0000 C   0  0  0  0  0  0  0  0  0  0  0  0
    3.2709   -0.5000    0.0000 C   0  0  0  0  0  0  0  0  0  0  0  0
    0.5878   -0.8090    0.0000 C   0  0  1  0  0  0  0  0  0  0  0  0
    0.0000   -0.0000    0.0000 C   0  0  0  0  0  0  0  0  0  0  0  0
    0.2788   -1.7601    0.0000 C   0  0  0  0  0  0  0  0  0  0  0  0
    3.2709    0.5000    0.0000 O   0  0  0  0  0  0  0  0  0  0  0  0
   -1.0000   -0.0000    0.0000 O   0  0  0  0  0  0  0  0  0  0  0  0
    0.5878    0.8090    0.0000 O   0  0  0  0  0  0  0  0  0  0  0  0
    2.4049    2.0000    0.0000 H   0  0  0  0  0  0  0  0  0  0  0  0
    2.4049   -2.0000    0.0000 H   0  0  0  0  0  0  0  0  0  0  0  0
    4.1369   -1.0000    0.0000 H   0  0  0  0  0  0  0  0  0  0  0  0
    1.2298   -2.0691    0.0000 H   0  0  0  0  0  0  0  0  0  0  0  0
    0.4867   -2.7382    0.0000 H   0  0  0  0  0  0  0  0  0  0  0  0
   -0.6994   -1.9680    0.0000 H   0  0  0  0  0  0  0  0  0  0  0  0
  1 12  1  0  0  0  0
  1  2  1  0  0  0  0
  2  3  2  0  0  0  0
  2 11  1  0  0  0  0
  3  6  1  0  0  0  0
  4 13  1  0  0  0  0
  4  3  1  0  0  0  0
  5  4  2  0  0  0  0
  6  7  1  0  0  0  0
  6  8  1  6  0  0  0
  7 10  2  0  0  0  0
  8 16  1  0  0  0  0
  9  5  1  0  0  0  0
  9  1  1  0  0  0  0
 11  7  1  0  0  0  0
 14  5  1  0  0  0  0
 15  8  1  0  0  0  0
 17  8  1  0  0  0  0
M  END
