LIG
  CCTOOLS-0919241030

 29 32  0  0  0  0  0  0  0  0999 V2000
    2.1100   -0.2580    0.7700 N   0  0  0  0  0
    2.2690   -0.2670   -0.6210 N   0  0  0  0  0
    1.0820   -0.1200   -1.1790 C   0  0  0  0  0
    0.1300   -0.0140   -0.1520 C   0  0  0  0  0
    0.7820   -0.1010    1.0400 C   0  0  0  0  0
    0.1630   -0.0360    2.3820 C   0  0  0  0  0
    0.5260    0.9600    3.2940 C   0  0  0  0  0
   -0.0750    0.9830    4.5350 C   0  0  0  0  0
   -0.9800    0.0820    4.8650 N   0  0  0  0  0
   -1.3510   -0.8740    4.0360 C   0  0  0  0  0
   -0.8050   -0.9670    2.7730 C   0  0  0  0  0
   -1.2190    0.1510   -0.8050 C   0  0  0  0  0
   -0.9710    0.1320   -2.2930 C   0  0  0  0  0
    0.3960   -0.0290   -2.4930 C   0  0  0  0  0
    0.8970   -0.0800   -3.7950 C   0  0  0  0  0
    0.0380    0.0290   -4.8680 C   0  0  0  0  0
   -1.3190    0.1900   -4.6600 C   0  0  0  0  0
   -1.8220    0.2420   -3.3730 C   0  0  0  0  0
    2.8190   -0.3480    1.4260 H   0  0  0  0  0
    1.2670    1.7000    3.0300 H   0  0  0  0  0
    0.1980    1.7490    5.2450 H   0  0  0  0  0
   -2.0960   -1.5900    4.3480 H   0  0  0  0  0
   -1.1130   -1.7530    2.0990 H   0  0  0  0  0
   -1.6630    1.1030   -0.5110 H   0  0  0  0  0
   -1.8760   -0.6710   -0.5230 H   0  0  0  0  0
    1.9570   -0.2060   -3.9610 H   0  0  0  0  0
    0.4270   -0.0100   -5.8750 H   0  0  0  0  0
   -1.9870    0.2750   -5.5040 H   0  0  0  0  0
   -2.8830    0.3670   -3.2130 H   0  0  0  0  0
  1  2  1  0  0  0
  1  5  1  0  0  0
  1 19  1  0  0  0
  2  3  2  0  0  0
  3  4  1  0  0  0
  3 14  1  0  0  0
  4  5  2  0  0  0
  4 12  1  0  0  0
  5  6  1  0  0  0
  6  7  2  0  0  0
  6 11  1  0  0  0
  7  8  1  0  0  0
  7 20  1  0  0  0
  8  9  2  0  0  0
  8 21  1  0  0  0
  9 10  1  0  0  0
 10 11  2  0  0  0
 10 22  1  0  0  0
 11 23  1  0  0  0
 12 13  1  0  0  0
 12 24  1  0  0  0
 12 25  1  0  0  0
 13 14  2  0  0  0
 13 18  1  0  0  0
 14 15  1  0  0  0
 15 16  2  0  0  0
 15 26  1  0  0  0
 16 17  1  0  0  0
 16 27  1  0  0  0
 17 18  2  0  0  0
 17 28  1  0  0  0
 18 29  1  0  0  0
M  END
$$$$
